/*--------------------------------*- C++ -*----------------------------------*\
  =========                 |
  \\      /  F ield         | OpenFOAM: The Open Source CFD Toolbox
   \\    /   O peration     | Website:  https://openfoam.org
    \\  /    A nd           | Version:  9
     \\/     M anipulation  |
\*---------------------------------------------------------------------------*/
FoamFile
{
    format      ascii;
    class       featureEdgeMesh;
    location    "constant/geometry";
    object      L_Wall.eMesh;
}
// * * * * * * * * * * * * * * * * * * * * * * * * * * * * * * * * * * * * * //


// points:
8((2 2 0) (4 2 0) (4 4 0) (2 4 0) (4 2 5) (4 4 5) (2 4 5) (2 2 5))

// edges:

12
(
(6 5)
(4 7)
(1 4)
(4 5)
(5 2)
(3 6)
(7 0)
(6 7)
(1 2)
(0 1)
(2 3)
(3 0)
)

// * * * * * * * * * * * * * * * * * * * * * * * * * * * * * * * * * * * * * //


// ************************************************************************* //
