/*--------------------------------*- C++ -*----------------------------------*\
| =========                 |                                                 |
| \\      /  F ield         | OpenFOAM: The Open Source CFD Toolbox             |
|  \\    /   O peration     | Website:  https://openfoam.org                   |
|   \\  /    A nd           | Version:  dev                                    |
|    \\/     M anipulation  |                                                 |
\\*---------------------------------------------------------------------------*/
FoamFile
{
    version     2.0;
    format      ascii;
    class       dictionary;
    object      blockMeshDict;
}
// * * * * * * * * * * * * * * * * * * * * * * * * * * * * * * * * * * * * * //

scale   1;

vertices
(
    (0 0 0)
    (10 0 0)
    (10 10 0)
    (0 10 0)
    (0 0 5)
    (10 0 5)
    (10 10 5)
    (0 10 5)
);

blocks
(
    hex (0 1 2 3 4 5 6 7) (100 100 50) simpleGrading (1 1 1)
);

edges
();

boundary
(
    ground
    {
        type patch;
        faces
        (
            (0 4 7 3)
            (0 1 5 4)
            (1 2 6 5)
            (2 3 7 6)
        );
    }
    atmosphere
    {
        type patch;
        faces
        (
            (4 5 6 7)
        );
    }
    frontAndBack
    {
        type empty;
        faces
        (
            (0 3 2 1)
            (4 7 6 5)
        );
    }
);

mergePatchPairs
();

// ************************************************************************* //