/*--------------------------------*- C++ -*----------------------------------*\
| =========                 |                                                 |
| \\      /  F ield         | OpenFOAM: The Open Source CFD Toolbox             |
|  \\    /   O peration     | Website:  https://openfoam.org                   |
|   \\  /    A nd           | Version:  dev                                    |
|    \\/     M anipulation  |                                                 |
\\*---------------------------------------------------------------------------*/
FoamFile
{
    version     2.0;
    format      ascii;
    class       dictionary;
    object      fvSolution;
}
// * * * * * * * * * * * * * * * * * * * * * * * * * * * * * * * * * * * * * //

solvers
{
    p
    {
        solver          GAMG;
        tolerance       1e-8;
        relTol          1e-3;
        smoother        GaussSeidel;
        nPreSweeps      0;
        nPostSweeps     2;
        cacheAgglomeration true;
        nCellsInCoarsestLevel 10;
        agglomerator    faceAreaPair;
        mergeLevels     1;
    }

    U
    {
        solver          smoothSolver;
        smoother        GaussSeidel;
        tolerance       1e-8;
        relTol          1e-3;
        nSweeps         2;
    }

    gamma
    {
        solver          smoothSolver;
        smoother        GaussSeidel;
        tolerance       1e-8;
        relTol          1e-3;
        nSweeps         2;
    }
}

PIMPLE
{
    momentumPredictor yes;
    nOuterCorrectors 1;
    nCorrectors     3;
    nNonOrthogonalCorrectors 1;
}

// ************************************************************************* //