/*--------------------------------*- C++ -*----------------------------------*\
  =========                 |
  \\      /  F ield         | OpenFOAM: The Open Source CFD Toolbox
   \\    /   O peration     | Website:  https://openfoam.org
    \\  /    A nd           | Version:  9
     \\/     M anipulation  |
\*---------------------------------------------------------------------------*/
FoamFile
{
    format      ascii;
    class       polyBoundaryMesh;
    location    "constant/polyMesh";
    object      boundary;
}
// * * * * * * * * * * * * * * * * * * * * * * * * * * * * * * * * * * * * * //

6
(
    inlet
    {
        type            patch;
        nFaces          1250;
        startFace       182500;
    }
    outlet
    {
        type            patch;
        nFaces          1250;
        startFace       183750;
    }
    front
    {
        type            patch;
        nFaces          1250;
        startFace       185000;
    }
    back
    {
        type            patch;
        nFaces          1250;
        startFace       186250;
    }
    bottom
    {
        type            wall;
        inGroups        List<word> 1(wall);
        nFaces          2500;
        startFace       187500;
    }
    top
    {
        type            wall;
        inGroups        List<word> 1(wall);
        nFaces          2500;
        startFace       190000;
    }
)

// ************************************************************************* //
