/*--------------------------------*- C++ -*----------------------------------*\
  =========                 |
  \\      /  F ield         | OpenFOAM: The Open Source CFD Toolbox
   \\    /   O peration     | Website:  https://openfoam.org
    \\  /    A nd           | Version:  9
     \\/     M anipulation  |
\*---------------------------------------------------------------------------*/
FoamFile
{
    format      ascii;
    class       extendedFeatureEdgeMesh;
    location    "constant/extendedFeatureEdgeMesh";
    object      L_Wall.extendedFeatureEdgeMesh;
}
// * * * * * * * * * * * * * * * * * * * * * * * * * * * * * * * * * * * * * //

// points
8((2 2 0) (8 2 0) (8 8 0) (2 8 0) (2 2 5) (8 2 5) (8 8 5) (2 8 5))
// edges

12
(
(5 6)
(4 5)
(7 4)
(6 7)
(1 2)
(0 1)
(3 0)
(2 3)
(1 5)
(6 2)
(4 0)
(3 7)
)

// concaveStart mixedStart nonFeatureStart
0 4 8
// internalStart flatStart openStart multipleStart
4 12 12 12
// normals

12
(
(0 0 1)
(-1 0 0)
(0 -1 0)
(0 0 1)
(1 -0 0)
(0 1 0)
(0 0 1)
(-1 0 0)
(0 -1 0)
(0 0 1)
(1 0 0)
(0 1 0)
)

// normal volume types

12
(
0
0
0
0
0
0
0
0
0
0
0
0
)

// normalDirections

12
(
2{1}
2(1 -1)
2{1}
2(1 -1)
2(1 -1)
2{1}
2(1 -1)
2{1}
2{1}
2{1}
2{1}
2{1}
)

// edgeNormals

12
(
2(0 1)
2(0 2)
2(3 4)
2(3 5)
2(6 7)
2(6 8)
2(9 10)
2(9 11)
2(1 2)
2(7 11)
2(10 8)
2(4 5)
)

// featurePointNormals

8
(
3(6 8 10)
3(6 7 8)
3(6 7 11)
3(9 10 11)
3(0 2 4)
3(0 1 2)
3(0 1 5)
3(3 4 5)
)

// featurePointEdges

8
(
3(6 10 5)
3(4 8 5)
3(7 9 4)
3(6 11 7)
3(2 10 1)
3(0 8 1)
3(3 9 0)
3(2 11 3)
)

// regionEdges
0()


// ************************************************************************* //
