/*--------------------------------*- C++ -*----------------------------------*\
| =========                 |                                                 |
| \\      /  F ield         | OpenFOAM: The Open Source CFD Toolbox           |
|  \\    /   O peration     | Version:  dev                                   |
|   \\  /    A nd           | Web:      www.OpenFOAM.org                      |
|    \\/     M anipulation  |                                                 |
\*---------------------------------------------------------------------------*/
FoamFile
{
    version     2.0;
    format      ascii;
    class       dictionary;
    object      phaseProperties;
}
// * * * * * * * * * * * * * * * * * * * * * * * * * * * * * * * * * * * * * //

phases (C4 Air);

C4
{
    type            pureMixture;
    thermoType
    {
        type            hePsiThermo;
        mixture         constGas;
        transport       const;
        thermo          hConst;
        equationOfState rhoConst;
        specie          specie;
        energy          sensibleInternalEnergy;
    }
    mixture
    {
        specie
        {
            nMoles          1;
            molWeight       100;
        }
        equationOfState
        {
            rho             1700;
        }
        thermodynamics
        {
            Cp              1000;
            Hf              -500000000;
        }
        transport
        {
            mu              1e-5;
            Pr              0.7;
        }
    }
}

Air
{
    type            pureMixture;
    thermoType
    {
        type            hePsiThermo;
        mixture         constGas;
        transport       const;
        thermo          hConst;
        equationOfState perfectGas;
        specie          specie;
        energy          sensibleInternalEnergy;
    }
    mixture
    {
        specie
        {
            nMoles          1;
            molWeight       28.97;
        }
        equationOfState
        {
            R               287.058;
        }
        thermodynamics
        {
            Cp              1005;
            Hf              0;
        }
        transport
        {
            mu              1.8e-5;
            Pr              0.7;
        }
    }
}