/*--------------------------------*- C++ -*----------------------------------*\
| =========                 |                                                 |
| \\      /  F ield         | OpenFOAM: The Open Source CFD Toolbox           |
|  \\    /   O peration     | Version:  9                                     |
|   \\  /    A nd           | Web:      www.OpenFOAM.org                      |
|    \/     M anipulation  |                                                 |
\*---------------------------------------------------------------------------*/
FoamFile
{
    version     2.0;
    format      ascii;
    class       dictionary;
    location    "system";
    object      blockMeshDict;
}
// * * * * * * * * * * * * * * * * * * * * * * * * * * * * * * * * * * * * * //

convertToMeters 1;

vertices
(
    (0 0 0)     // 0
    (10 0 0)    // 1
    (10 10 0)   // 2
    (0 10 0)    // 3
    (0 0 5)     // 4
    (10 0 5)    // 5
    (10 10 5)   // 6
    (0 10 5)    // 7
);

blocks
(
    hex (0 1 2 3 4 5 6 7) (20 20 10) simpleGrading (1 1 1)
);

edges
(
);

boundary
(
    inlet
    {
        type            patch;
        faces           ((0 4 7 3));
    }
    outlet
    {
        type            patch;
        faces           ((1 2 6 5));
    }
    front
    {
        type            patch;
        faces           ((0 1 5 4));
    }
    back
    {
        type            patch;
        faces           ((3 7 6 2));
    }
    bottom
    {
        type            patch;
        faces           ((0 3 2 1));
    }
    top
    {
        type            patch;
        faces           ((4 5 6 7));
    }
);

mergePatchPairs
(
);

// ************************************************************************* //