/*--------------------------------*- C++ -*----------------------------------*\
| =========                 |                                                 |
| \\      /  F ield         | OpenFOAM: The Open Source CFD Toolbox           |
|  \\    /   O peration     | Version:  dev                                   |
|   \\  /    A nd           | Web:      www.OpenFOAM.org                      |
|    \\/     M anipulation  |                                                 |
\*---------------------------------------------------------------------------*/
FoamFile
{
    version     2.0;
    format      ascii;
    class       dictionary;
    object      fvSolution;
}
// * * * * * * * * * * * * * * * * * * * * * * * * * * * * * * * * * * * * * //

solvers
{
    p
    {
        solver          GAMG;
        tolerance       1e-8;
        relTol          0.01;
        smoother        GaussSeidel;
        cacheAgglomeration true;
        nCellsInCoarsestLevel 10;
        agglomerator    faceAreaPair;
        mergeLevels     1;
    }

    U
    {
        solver          PBiCGStab;
        preconditioner  DILU;
        tolerance       1e-8;
        relTol          0.01;
    }

    e
    {
        solver          PBiCGStab;
        preconditioner  DILU;
        tolerance       1e-8;
        relTol          0.01;
    }

    alpha.C4
    {
        solver          GaussSeidel;
        tolerance       1e-10;
        relTol          0.01;
    }

    alpha.Air
    {
        solver          GaussSeidel;
        tolerance       1e-10;
        relTol          0.01;
    }
}

PIMPLE
{
    nNonOrthogonalCorrectors 0;
    nCorrectors 2;
    nOuterCorrectors 1;
}

relaxationFactors
{
    fields
    {
        p               0.3;
        e               0.7;
    }
    equations
    {
        U               0.7;
        alpha.C4        0.7;
        alpha.Air       0.7;
    }
}

// ************************************************************************* //