/*--------------------------------*- C++ -*----------------------------------*\
| =========                 |                                                 |
| \\      /  F ield         | OpenFOAM: The Open Source CFD Toolbox           |
|  \\    /   O peration     | Version:  9                                     |
|   \\  /    A nd           | Web:      www.OpenFOAM.org                      |
|    \/     M anipulation  |                                                 |
\*---------------------------------------------------------------------------*/
FoamFile
{
    version     2.0;
    format      ascii;
    class       dictionary;
    location    "system";
    object      snappyHexMeshDict;
}
// * * * * * * * * * * * * * * * * * * * * * * * * * * * * * * * * * * * * * //

// Which of the steps to run
castellatedMesh true;
snap true;
addLayers false;

// Geometry. Definition of all surfaces. All surfaces are of class
// searchableSurface.
geometry
{
    L_Wall.stl
    {
        type triSurfaceMesh;
        name L_Wall;
    }
}

// Settings for the castellatedMesh generation.
castellatedMeshControls
{
    // Refinement parameters
    maxLocalCells 1000000;
    maxGlobalCells 2000000;
    minRefinementCells 10;
    allowFreeStandingZoneFaces true;
    locationInMesh (1 1 1);
    nCellsBetweenLevels 1;
    resolveFeatureAngle 30;

    // Surface refinement
    refinementSurfaces
    {
        L_Wall
        {
            level (2 2);
        }
    }

    // Mesh refinement regions
    refinementRegions
    {
        L_Wall
        {
            mode inside;
            levels ((0.1 2));
        }
    }
}

// Settings for the snapping.
snapControls
{
    nSmoothPatch 3;
    tolerance 4.0;
    nSolveIter 30;
    nRelaxIter 5;
}

// Settings for the layer addition.
addLayersControls
{
    relativeSizes true;
    layers {};
    expansionRatio 1.0;
    finalLayerThickness 0.3;
    minThickness 0.1;
    nGrow 0;
    featureAngle 30;
    slipFeatureAngle 30;
    nRelaxIter 3;
    nSmoothSurfaceNormals 1;
    nSmoothNormals 3;
    nSmoothThickness 10;
    maxFaceThicknessRatio 0.5;
    maxThicknessToMedialRatio 0.3;
    minMedianAxisAngle 90;
    nBufferCellsNoExtrude 0;
    nLayerIter 50;
}

// Mesh quality settings
meshQualityControls
{
    maxNonOrtho 65;
    maxBoundarySkewness 20;
    maxInternalSkewness 4;
    maxConcave 80;
    minVol 1e-13;
    minTetQuality 1e-15;
    minArea -1;
    minTwist 0.02;
    minDeterminant 0.001;
    minFaceWeight 0.05;
    minVolRatio 0.01;
    minTriangleTwist -1;
    nSmoothScale 4;
    errorReduction 0.75;
    relaxed
    {
        maxNonOrtho 75;
    }
}

// Advanced
mergeTolerance 1e-6;

// ************************************************************************* //