/*--------------------------------*- C++ -*----------------------------------*\
  =========                 |
  \\      /  F ield         | OpenFOAM: The Open Source CFD Toolbox
   \\    /   O peration     | Website:  https://openfoam.org
    \\  /    A nd           | Version:  9
     \\/     M anipulation  |
\*---------------------------------------------------------------------------*/
FoamFile
{
    format      ascii;
    class       polyBoundaryMesh;
    location    "constant/polyMesh";
    object      boundary;
}
// * * * * * * * * * * * * * * * * * * * * * * * * * * * * * * * * * * * * * //

5
(
    inlet
    {
        type            patch;
        nFaces          5000;
        startFace       1480000;
    }
    outlet
    {
        type            patch;
        nFaces          5000;
        startFace       1485000;
    }
    walls
    {
        type            wall;
        inGroups        List<word> 1(wall);
        nFaces          10000;
        startFace       1490000;
    }
    top
    {
        type            patch;
        nFaces          10000;
        startFace       1500000;
    }
    bottom
    {
        type            patch;
        nFaces          10000;
        startFace       1510000;
    }
)

// ************************************************************************* //
