/*--------------------------------*- C++ -*----------------------------------*\
  =========                 |
  \\      /  F ield         | OpenFOAM: The Open Source CFD Toolbox
   \\    /   O peration     | Website:  https://openfoam.org
    \\  /    A nd           | Version:  9
     \\/     M anipulation  |
\*---------------------------------------------------------------------------*/
FoamFile
{
    format      ascii;
    class       extendedFeatureEdgeMesh;
    location    "constant/extendedFeatureEdgeMesh";
    object      L_Wall.extendedFeatureEdgeMesh;
}
// * * * * * * * * * * * * * * * * * * * * * * * * * * * * * * * * * * * * * //

// points
8((2 2 0) (4 2 0) (4 4 0) (2 4 0) (4 2 5) (4 4 5) (2 4 5) (2 2 5))
// edges

12
(
(6 5)
(4 7)
(1 4)
(4 5)
(5 2)
(3 6)
(7 0)
(6 7)
(1 2)
(0 1)
(2 3)
(3 0)
)

// concaveStart mixedStart nonFeatureStart
0 0 8
// internalStart flatStart openStart multipleStart
2 8 8 8
// normals

14
(
(0 0 1)
(0 0 -1)
(-1 0 0)
(0 0 -1)
(0 -1 0)
(0 0 1)
(0 1 0)
(1 0 0)
(0 1 0)
(0 0 1)
(0 -1 0)
(0 0 1)
(-1 0 0)
(1 0 0)
)

// normal volume types

14
(
0
0
0
0
0
0
0
0
0
0
0
0
0
0
)

// normalDirections

12
(
2(1 -1)
2(1 -1)
2{1}
2{1}
2{1}
2{1}
2{1}
2{1}
3(1 -1 -1)
3(1 -1 1)
3(1 -1 1)
3(1 -1 -1)
)

// edgeNormals

12
(
2(8 9)
2(10 11)
2(12 4)
2(12 11)
2(2 6)
2(7 8)
2(13 10)
2(13 9)
3(0 1 2)
3(0 3 4)
3(5 1 6)
3(5 3 7)
)

// featurePointNormals

8
(
4(13 10 0 3)
4(12 4 0 1)
4(2 6 0 1)
4(7 8 5 1)
3(10 11 12)
3(8 9 12)
3(8 9 7)
3(10 11 13)
)

// featurePointEdges

8
(
3(9 11 6)
3(8 9 2)
3(8 10 4)
3(10 11 5)
3(2 1 3)
3(4 0 3)
3(7 0 5)
3(6 1 7)
)

// regionEdges
4(8 9 10 11)


// ************************************************************************* //
