/*--------------------------------*- C++ -*----------------------------------*\
| =========                 |                                                 |
| \\      /  F ield         | OpenFOAM: The Open Source CFD Toolbox           |
|  \\    /   O peration     | Version:  v9                                  |
|   \\  /    A nd           | Web:      www.OpenFOAM.com                      |
|    \/     M anipulation  |                                                 |
\*---------------------------------------------------------------------------*/
FoamFile
{
    version     2.0;
    format      ascii;
    class       dictionary;
    location    "system";
    object      snappyHexMeshDict;
}
// * * * * * * * * * * * * * * * * * * * * * * * * * * * * * * * * * * * * * //

// Which of the steps to run
castellatedMesh true;
snap            true;
addLayers       true;

// Geometry. Definition of all surfaces. All surfaces are of class
// searchableSurface.
// Surfaces are used
// - to specify refinement for any mesh cell intersecting it
// - to specify refinement for any mesh cell inside/outside/near
// - to 'snap' the mesh boundary to the surface
geometry
{
    L_Wall.stl
    {
        type            triSurfaceMesh;
        name            L_Wall;
    }
    
    // Background mesh for refinement
    background
    {
        type            searchableBox;
        min             (0 0 0);
        max             (10 10 5);
    }
};

// Settings for the castellatedMesh generation.
castellatedMeshControls
{
    // Refinement parameters
    // ~~~~~~~~~~~~~~~~~~~~~

    // If nCellsBetweenLevels is >0 then for each cell on level i get the
    // volume cell that contains it and refine it up to level i+nCellsBetweenLevels.
    // (1 is the maximum difference in level)
    nCellsBetweenLevels 3;

    // Explicit feature edge refinement
    // ~~~~~~~~~~~~~~~~~~~~~~~~~~~~~~~~

    // Detect features by sampling the surface at a distance from the surface
    // (default=0.01)
    // Note: this does not work for complex surfaces with multiple intersections
    // so use the surfaceFeatureExtract utility instead.
    features
    (
        {
            file "L_Wall.eMesh";
            level 2;
        }
    );

    // Surface based refinement
    // ~~~~~~~~~~~~~~~~~~~~~~~~

    // Specifies two levels for every surface. The first is the minimum level,
    // the second is the maximum. The area between the two will be refined up to
    // the maximum level.
    refinementSurfaces
    {
        L_Wall
        {
            // Surface-wise min and max refinement level
            level (2 3);
        }
    }

    // Resolve sharp angles
    resolveFeatureAngle 30;

    // Region-wise refinement
    // ~~~~~~~~~~~~~~~~~~~~~~

    // Specifies refinement level for cells in relation to a surface. One of
    // three modes
    // - distance. 'levels' specifies per distance to the surface the
    //   wanted refinement level. The distances need to be specified in
    //   descending order.
    // - inside. 'levels' is only one entry and only the level is used. All
    //   cells inside the surface get refined up to the level. The surface
    //   needs to be closed for this to be possible.
    // - outside. Same but cells outside.
    refinementRegions
    {
        background
        {
            mode            inside;
            levels          ((1E15 2));
        }
    }

    // Mesh selection
    // ~~~~~~~~~~~~~~

    // After refinement patches get added for all refinementSurfaces and
    // all cells intersecting the surfaces get put into these patches. The
    // section follows the same syntax as the refinementSurfaces.
    // These patches can be used for post-processing or for further refinement.
    // They are not used for snapping.
    // This is optional.
    // set the patch names for the refinement regions
    //refinementPatches
    //{
    //    L_Wall
    //    {
    //        name            L_Wall;
    //    }
    //}

    // Mesh motion settings
    // ~~~~~~~~~~~~~~~~~~~~

    // Allow some degree of mesh motion during snapping to improve topology
    // and quality
    //meshQualityControls
    //{
    //    // Maximum non-orthogonality allowed. Set to 180 to disable.
    //    maxNonOrtho 70;
    //
    //    // Max skewness allowed (0-4). Set to 4 to disable.
    //    maxBoundarySkewness 20;
    //
    //    // Max concaveness allowed (0-80). Set to 80 to disable.
    //    maxInternalSkewness 4;
    //
    //    // Max aspect ratio allowed. Set to 1000 to disable.
    //    maxAspectRatio 1000;
    //
    //    // Minimum volume fraction of original cell before removing it
    //    minVolFraction 1e-13;
    //
    //    // Minimum face area fraction of original face before removing it
    //    minAreaFraction 1e-13;
    //
    //    // Minimum length fraction of original edge before removing it
    //    minTwist 0.02;
    //
    //    // Minimum determinant of the transformation tensor
    //    minDeterminant 0.001;
    //
    //    // Use relaxed meshQualityControls for final mesh
    //    relaxed
    //    {
    //        // Maximum non-orthogonality allowed. Set to 180 to disable.
    //        maxNonOrtho 70;
    //    }
    //}
}

// Settings for the snapping.
snapControls
{
    //- Number of patch smoothing iterations before finding correspondence
    //  to the surface
    nSmoothPatch 3;

    //- Relative distance for points to be attracted by surface feature point
    //  or edge. True distance is this factor times local
    //  maximum edge length.
    tolerance 4.0;

    //- Number of mesh displacement relaxation iterations.
    nSolveIter 300;

    //- Maximum number of snapping relaxation iterations. Should stop
    //  before upon reaching a correct mesh.
    nRelaxIter 5;

    //- Highly experimental and not yet working.
    //  Displacement relaxation factor for internal points.
    fScale 0.1;
}

// Settings for the layer addition.
addLayersControls
{
    // Are the thickness parameters below relative to the undistorted
    // size of the refined cell outside layer (true) or absolute sizes (false).
    relativeSizes true;

    // Per surface to add layers
    layers
    {
        L_Wall
        {
            nSurfaceLayers 2;
        }
    }

    // Expansion factor for layer mesh
    expansionRatio 1.0;

    // Wanted thickness of final added cell layer. If multiple layers
    // is the thickness of the layer furthest away from the wall.
    // Relative to undistorted size of cell outside layer.
    // See relativeSizes parameter.
    finalLayerThickness 0.3;

    // Minimum thickness of cell layer. If for any reason layer
    // cannot be above minThickness do not add layer.
    // Relative to undistorted size of cell outside layer.
    minThickness 0.1;

    // If points get not extruded do nGrow layers of connected faces that are
    // not grown. This helps convergence of the layer addition process
    // close to features.
    // Note: changed(corrected) w.r.t 1.7.x so you actually get the nGrow layers.
    nGrow 0;

    // Advanced settings

    // When not to extrude surface. 0 is flat surface, 90 is when two faces
    // make straight angle.
    featureAngle 30;

    // Maximum number of snapping relaxation iterations. Should stop
    // before upon reaching a correct mesh.
    nRelaxIter 3;

    // Number of smoothing iterations of surface normals
    nSmoothSurfaceNormals 1;

    // Number of smoothing iterations of interior mesh movement direction
    nSmoothNormals 3;

    // Smooth layer thickness over surface patches
    nSmoothThickness 10;

    // Stop layer growth on highly warped cells
    maxFaceThicknessRatio 0.5;

    // Reduce layer growth where ratio thickness to medial distance is large
    maxThicknessToMedialRatio 0.3;

    // Angle used to pick up medial axis points
    minMedianAxisAngle 90;

    // Create buffer region for new layer terminations
    nBufferCellsNoExtrude 0;

    // Overall max number of layer addition iterations
    nLayerIter 50;
}

// Generic mesh quality settings. At any time well-shaped cells are
// preferred over perfect geometry.
meshQualityControls
{
    // Maximum non-orthogonality allowed. Set to 180 to disable.
    maxNonOrtho 70;

    // Max skewness allowed (0-4). Set to 4 to disable.
    maxBoundarySkewness 20;

    // Max concaveness allowed (0-80). Set to 80 to disable.
    maxInternalSkewness 4;

    // Max aspect ratio allowed. Set to 1000 to disable.
    maxAspectRatio 1000;

    // Minimum volume fraction of original cell before removing it
    minVolFraction 1e-13;

    // Minimum face area fraction of original face before removing it
    minAreaFraction 1e-13;

    // Minimum length fraction of original edge before removing it
    minTwist 0.02;

    // Minimum determinant of the transformation tensor
    minDeterminant 0.001;

    // Use relaxed meshQualityControls for final mesh
    relaxed
    {
        // Maximum non-orthogonality allowed. Set to 180 to disable.
        maxNonOrtho 70;
    }
}

// Advanced

// Flags for optional output
// 0 : only write final mesh
// 1 : write intermediate meshes
// 2 : write volScalarField with cellLevel for postprocessing
// 4 : write current intersections as .obj files
debug 0;

// Merge tolerance. Is fraction of overall bounding box of initial mesh.
// Note: the write tolerance needs to be higher than this.
mergeTolerance 1e-6;

// ************************************************************************* //