/*--------------------------------*- C++ -*----------------------------------*\
| =========                 |                                                 |
| \\      /  F ield         | OpenFOAM: The Open Source CFD Toolbox           |
|  \\    /   O peration     | Version:  v2212                                 |
|   \\  /    A nd           | Website:  www.openfoam.com                      |
|    \/     M anipulation  |                                                 |
\*---------------------------------------------------------------------------*/
FoamFile
{
    version     2.0;
    format      ascii;
    class       dictionary;
    object      fvSchemes;
}
// * * * * * * * * * * * * * * * * * * * * * * * * * * * * * * * * * * * * * //

ddtSchemes
{
    default         Euler;
}

gradSchemes
{
    default         cellLimited Gauss linear 1;
    grad(p)         cellLimited Gauss linear 1;
    grad(U)         cellLimited Gauss linear 1;
    grad(T)         cellLimited Gauss linear 1;
    grad(rho)       cellLimited Gauss linear 1;
}

divSchemes
{
    default         none;
    div(phi,U)      Gauss upwind;
    div(phi,T)      Gauss upwind;
    div(phi,p)      Gauss upwind;
    div(phi,rho)    Gauss upwind;
    div(phi,Yi_h)   Gauss upwind;
    div(phi,K)      Gauss linear;
    div(phi,epsilon) Gauss upwind;
    div(phi,R)      Gauss upwind;
    div(R)          Gauss linear;
    div(U)          Gauss linear;
}

laplacianSchemes
{
    default         Gauss linear corrected;
    laplacian(muEff,U) Gauss linear corrected;
    laplacian(alphaEff,T) Gauss linear corrected;
    laplacian(DkEff,k) Gauss linear corrected;
    laplacian(DepsilonEff,epsilon) Gauss linear corrected;
    laplacian(DREff,R) Gauss linear corrected;
    laplacian(DnuTildaEff,nuTilda) Gauss linear corrected;
}

interpolationSchemes
{
    default         linear;
    interpolate(U)  linear;
}

snGradSchemes
{
    default         corrected;
}

fluxRequired
{
    default         no;
    p               ;
}
