FoamFile
{
    version     2.0;
    format      ascii;
    class       dictionary;
    object      surfaceFeaturesDict;
}

surfaces
(
    "L_Wall.stl"
);

includedAngle   150;